Circuit: * D:\Projects Github\100mA Charger Circuit\Charger.asc

Per .tran options, skipping operating point for transient analysis.

Date: Wed Jul 28 18:36:16 2021
Total elapsed time: 0.139 seconds.

tnom = 27
temp = 27
method = modified trap
totiter = 2713
traniter = 2713
tranpoints = 1242
accept = 1198
rejected = 44
matrix size = 16
fillins = 7
solver = Normal
Matrix Compiler1: 938 bytes object code size  0.2/0.1/[0.1]
Matrix Compiler2: 1.41 KB object code size  0.1/0.2/[0.1]

